scratch/milToGridlabTests/INEC-GRAHAM.glm
clock {
	timezone PST+8PDT;
	starttime '2000-01-01 00:00:00';
	stoptime '2000-01-01 00:00:00';
};

#set minimum_timestep=60;
#set profiler=1;
#set relax_naming_rules=1;
module generators;
module tape;
module residential {
	implicit_enduses NONE;
};

module powerflow {
	solver_method NR;
	NR_iteration_limit 50;
};

object node {
	phases ABCN;
	name GILMORE_CITY_SUBx;
	bustype SWING;
	longitude 465.807840703;
	nominal_voltage 7200.0;
	latitude 983.025304006;
};

object fuse {
	phases ACB;
	from GILMORE_CITY_SUBx;
	name RECL_650;
	current_limit 9999.0 A;
	longitude 466.561344328;
	to nodePROH19109RECL_650;
	latitude 985.58804937;
};

object overhead_line {
	phases ACB;
	from nodePROH19109RECL_650;
	name PROH19109;
	longitude 468.473263908;
	to node288-25-830PROH19109;
	length 1561.98;
	latitude 1056.78130164;
	configuration PROH15855-LINECONFIG;
};

object load {
	phases B;
	load_class R;
	name 288-25-830;
	parent node288-25-830PROH19109;
	longitude 468.537997786;
	constant_power_C 0.0+0.0j;
	constant_power_A 0.0+0.0j;
	latitude 1054.73611908;
	nominal_voltage 7200.0;
	constant_power_B 489.093+161.276j;
};

object overhead_line {
	phases ACB;
	from node288-25-830PROH19109;
	name PROH19110;
	to nodePRUG2977PROH19110;
	longitude 468.535217063;
	length 122.15;
	latitude 1062.73751587;
	configuration PROH15855-LINECONFIG;
};

object overhead_line {
	phases ACB;
	from nodePRUG2977PROH19110;
	name PROH19111;
	longitude 454.604267556;
	to nodePROH19112PROH19111;
	length 1168.1;
	latitude 1064.69008379;
	configuration PROH15855-LINECONFIG;
};

object overhead_line {
	phases ACB;
	from nodePROH19112PROH19111;
	name PROH19112;
	longitude 453.912357573;
	to node288-25-831PROH19112;
	length 76.6279;
	latitude 1067.13520455;
	configuration PROH15855-LINECONFIG;
};

object load {
	phases ABC;
	load_class R;
	name 288-25-831;
	parent node288-25-831PROH19112;
	longitude 457.872566312;
	constant_power_C 423922.0+139786.0j;
	constant_power_A 423922.0+139786.0j;
	latitude 1068.7989932;
	nominal_voltage 7200.0;
	constant_power_B 423922.0+139786.0j;
};

object underground_line {
	phases ACB;
	from node288-25-831PROH19112;
	name PRUG7031;
	longitude 452.688753007;
	to nodePRUG7032PRUG7031;
	length 131.433;
	latitude 1071.14816285;
	configuration PRUG5793-LINECONFIG;
};

object underground_line {
	phases ACB;
	from nodePRUG7032PRUG7031;
	name PRUG7032;
	longitude 445.714051195;
	to nodePRUG7033PRUG7032;
	length 687.798;
	latitude 1079.50636888;
	configuration PRUG5793-LINECONFIG;
};

object capacitor {
	control MANUAL;
	phases ABCN;
	capacitor_A 50000.0;
	control_level BANK;
	name NEWCAP-FF99042C;
	parent node288-25-831PROH19112;
	capacitor_B 50000.0;
	phases_connected ABCN;
	longitude 453.912357573;
	switchC CLOSED;
	nominal_voltage 7200.0;
	capacitor_C 50000.0;
	latitude 1067.13520455;
	switchB CLOSED;
	switchA CLOSED;
	pt_phase A;
};

object fuse {
	phases ACB;
	from GILMORE_CITY_SUBx;
	name RECL_646;
	current_limit 9999.0 A;
	longitude 466.433363755;
	to nodePROH8258RECL_646;
	latitude 980.287101969;
};

object overhead_line {
	phases ACB;
	from nodePROH8258RECL_646;
	name PROH8258;
	longitude 527.95703065;
	to nodePROH13247PROH8258;
	length 5557.83;
	latitude 952.84921021;
	configuration PROH15855-LINECONFIG;
};

object overhead_line {
	phases ACB;
	from nodePROH13247PROH8258;
	name PROH13247;
	longitude 538.19799333;
	to nodePRUG3830PROH13247;
	length 858.344;
	latitude 952.06014539;
	configuration PROH15855-LINECONFIG;
};

object underground_line {
	phases A;
	from nodePRUG3830PROH13247;
	name PRUG3830;
	longitude 539.542029058;
	to node308-02-281PRUG3830;
	length 381.773;
	latitude 938.596542809;
	configuration PRUG6578-LINECONFIG;
};

object load {
	phases A;
	load_class R;
	name 308-02-281;
	parent node308-02-281PRUG3830;
	longitude 542.265984916;
	constant_power_C 0.0+0.0j;
	constant_power_A 10196.2+3362.15j;
	latitude 936.966501598;
	nominal_voltage 7200.0;
	constant_power_B 0.0+0.0j;
};

object overhead_line {
	phases ACB;
	from nodePRUG3830PROH13247;
	name PROH13248;
	longitude 541.475398569;
	to nodePROH13249PROH13248;
	length 274.687;
	latitude 951.830287351;
	configuration PROH15855-LINECONFIG;
};

object overhead_line {
	phases ACB;
	from nodePROH13249PROH13248;
	name PROH13249;
	to nodePROH13250PROH13249;
	longitude 557.184654976;
	length 1316.66;
	latitude 950.646200014;
	configuration PROH15855-LINECONFIG;
};

object overhead_line {
	phases ACB;
	from nodePROH13250PROH13249;
	name PROH13250;
	longitude 594.348513106;
	to nodePROH18922PROH13250;
	length 3123.31;
	latitude 962.201833959;
	configuration PROH15855-LINECONFIG;
};

object overhead_line {
	phases ACB;
	from nodePROH18922PROH13250;
	name PROH18922;
	longitude 596.176430461;
	to nodePRUG641PROH18922;
	length 153.266;
	latitude 962.453746608;
	configuration PROH15855-LINECONFIG;
};

object underground_line {
	phases A;
	from nodePRUG641PROH18922;
	name PRUG641;
	longitude 595.855400524;
	to node308-11-160PRUG641;
	length 1221.09;
	latitude 902.871999972;
	configuration PRUG6578-LINECONFIG;
};

object load {
	phases A;
	load_class R;
	name 308-11-160;
	parent node308-11-160PRUG641;
	longitude 599.401353317;
	constant_power_C 0.0+0.0j;
	constant_power_A 7912.72+2609.18j;
	latitude 901.002819274;
	nominal_voltage 7200.0;
	constant_power_B 0.0+0.0j;
};

object overhead_line {
	phases ACB;
	from nodePRUG641PROH18922;
	name PROH18923;
	longitude 657.783620261;
	to nodePROH13334PROH18923;
	length 5162.68;
	latitude 962.317498138;
	configuration PROH15855-LINECONFIG;
};

object overhead_line {
	phases ACB;
	from nodePROH13334PROH18923;
	name PROH13334;
	longitude 658.216932781;
	to nodePROH7138PROH13334;
	length 1679.24;
	latitude 1044.25477486;
	configuration PROH15855-LINECONFIG;
};

object overhead_line {
	phases C;
	from nodePROH7138PROH13334;
	name PROH7138;
	longitude 650.31005782;
	to node308-12-840PROH7138;
	length 662.722;
	latitude 1043.62254275;
	configuration PROH7038-LINECONFIG;
};

object load {
	phases C;
	load_class R;
	name 308-12-840;
	parent node308-12-840PROH7138;
	longitude 648.324146272;
	constant_power_C 6978.14+2301.01j;
	constant_power_A 0.0+0.0j;
	latitude 1042.74955398;
	nominal_voltage 7200.0;
	constant_power_B 0.0+0.0j;
};

object overhead_line {
	phases ACB;
	from nodePROH7138PROH13334;
	name PROH13335;
	longitude 659.40350926;
	to nodePROH13336PROH13335;
	length 2284.29;
	latitude 1155.63544226;
	configuration PROH15855-LINECONFIG;
};

object overhead_line {
	phases ACB;
	from nodePROH13336PROH13335;
	name PROH13336;
	longitude 659.884754571;
	to nodeSWIT_48-APROH13336;
	length 909.898;
	latitude 1200.0;
	configuration PROH15855-LINECONFIG;
};

object load {
	phases A;
	load_class R;
	name 308-13-170;
	parent nodePROH13336PROH13335;
	longitude 660.44936972;
	constant_power_C 0.0+0.0j;
	constant_power_A 0.0+0.0j;
	latitude 1196.90879045;
	nominal_voltage 7200.0;
	constant_power_B 0.0+0.0j;
};

object overhead_line {
	phases ACB;
	from nodePROH13334PROH18923;
	name PROH16414;
	longitude 657.570918451;
	to nodePROH2135PROH16414;
	length 838.438;
	latitude 921.40620176;
	configuration PROH15855-LINECONFIG;
};

object overhead_line {
	phases A;
	from nodePROH2135PROH16414;
	name PROH2135;
	longitude 654.32802483;
	to node308-11-860PROH2135;
	length 271.896;
	latitude 921.83553146;
	configuration PROH11764-LINECONFIG;
};

object load {
	phases A;
	load_class R;
	name 308-11-860;
	parent node308-11-860PROH2135;
	longitude 652.070887677;
	constant_power_C 0.0+0.0j;
	constant_power_A 4722.71+1557.29j;
	latitude 924.237546966;
	nominal_voltage 7200.0;
	constant_power_B 0.0+0.0j;
};

object overhead_line {
	phases ACB;
	from nodePROH2135PROH16414;
	name PROH16415;
	to nodePRUG640PROH16415;
	longitude 656.780027251;
	length 3554.74;
	latitude 747.944755662;
	configuration PROH15855-LINECONFIG;
};

object underground_line {
	phases A;
	from nodePRUG640PROH16415;
	name PRUG640;
	longitude 659.435624227;
	to node308-14-130PRUG640;
	length 222.608;
	latitude 747.673238936;
	configuration PRUG6578-LINECONFIG;
};

object load {
	phases A;
	load_class R;
	name 308-14-130;
	parent node308-14-130PRUG640;
	longitude 663.957948818;
	constant_power_C 0.0+0.0j;
	constant_power_A 40248.9+13271.9j;
	latitude 750.786668306;
	nominal_voltage 7200.0;
	constant_power_B 0.0+0.0j;
};

object overhead_line {
	phases ACB;
	from nodePRUG640PROH16415;
	name PROH16416;
	longitude 656.589374537;
	to nodeSWIT_47-BPROH16416;
	length 498.235;
	latitude 723.640578514;
	configuration PROH15855-LINECONFIG;
};

object switch {
	status CLOSED;
	phases ACB;
	from nodeSWIT_47-BPROH16416;
	name SWIT_47-B;
	longitude 656.589374537;
	to nodeSWIT_47-ASWIT_47-B;
	latitude 723.640578514;
};

object switch {
	status CLOSED;
	phases ACB;
	from nodeSWIT_47-ASWIT_47-B;
	name SWIT_47-A;
	longitude 656.589374537;
	to nodePROH7760SWIT_47-A;
	latitude 723.640578514;
};

object overhead_line {
	phases ACB;
	from nodePROH7760SWIT_47-A;
	name PROH7760;
	longitude 656.578949142;
	to nodePROH7759PROH7760;
	length 337.429;
	latitude 707.172158287;
	configuration PROH15855-LINECONFIG;
};

object overhead_line {
	phases ACB;
	from nodePROH7759PROH7760;
	name PROH7759;
	longitude 646.387596916;
	to nodeSWIT_46-BPROH7759;
	length 928.539;
	latitude 724.958463835;
	configuration PROH15855-LINECONFIG;
};

object overhead_line {
	phases ACB;
	from nodePROH7759PROH7760;
	name PROH10759;
	longitude 661.360485673;
	to nodePRUG2085PROH10759;
	length 3888.15;
	latitude 518.41853764;
	configuration PROH15855-LINECONFIG;
};

object underground_line {
	phases C;
	from nodePRUG2085PROH10759;
	name PRUG2085;
	longitude 671.888925326;
	to node308-15-120PRUG2085;
	length 882.284;
	latitude 518.514597694;
	configuration PRUG6578-LINECONFIG;
};

object load {
	phases C;
	load_class R;
	name 308-15-120;
	parent node308-15-120PRUG2085;
	longitude 669.145551387;
	constant_power_C 6557.59+2162.33j;
	constant_power_A 0.0+0.0j;
	latitude 519.026683437;
	nominal_voltage 7200.0;
	constant_power_B 0.0+0.0j;
};

object overhead_line {
	phases ACB;
	from nodePRUG2085PROH10759;
	name PROH10760;
	longitude 661.389844516;
	to nodePROH11876PROH10760;
	length 1101.27;
	latitude 464.670479664;
	configuration PROH15855-LINECONFIG;
};

object overhead_line {
	phases ACB;
	from nodePROH11876PROH10760;
	name PROH11876;
	longitude 661.514230132;
	to nodePROH4626PROH11876;
	length 4664.14;
	latitude 237.034586531;
	configuration PROH15855-LINECONFIG;
};

object overhead_line {
	phases B;
	from nodePROH4626PROH11876;
	name PROH4626;
	longitude 665.937828471;
	to node308-16-120PROH4626;
	length 372.36;
	latitude 235.3187381;
	configuration PROH4629-LINECONFIG;
};

object load {
	phases B;
	load_class R;
	name 308-16-120;
	parent node308-16-120PROH4626;
	longitude 667.818707702;
	constant_power_C 0.0+0.0j;
	constant_power_A 0.0+0.0j;
	latitude 231.40226537;
	nominal_voltage 7200.0;
	constant_power_B 8224.24+2711.91j;
};

object overhead_line {
	phases ACB;
	from nodePROH4626PROH11876;
	name PROH11877;
	to nodePROH17413PROH11877;
	longitude 661.547783097;
	length 1259.71;
	latitude 175.553693182;
	configuration PROH15855-LINECONFIG;
};

object overhead_line {
	phases A;
	from nodePROH17413PROH11877;
	name PROH17413;
	longitude 664.146579706;
	to nodeFUSE_387PROH17413;
	length 217.832;
	latitude 175.31942423;
	configuration PROH11764-LINECONFIG;
};

object fuse {
	phases A;
	from nodeFUSE_387PROH17413;
	name FUSE_387;
	current_limit 9999.0 A;
	longitude 678.40381677;
	to nodePROH17414FUSE_387;
	latitude 219.910072359;
};

object overhead_line {
	phases A;
	from nodePROH17414FUSE_387;
	name PROH17414;
	longitude 692.367495397;
	to nodePRUG586PROH17414;
	length 2365.48;
	latitude 172.776282943;
	configuration PROH11764-LINECONFIG;
};

object underground_line {
	phases A;
	from nodePRUG586PROH17414;
	name PRUG586;
	longitude 693.416624573;
	to node308-16-410PRUG586;
	length 1182.32;
	latitude 230.320673968;
	configuration PRUG6578-LINECONFIG;
};

object load {
	phases A;
	load_class R;
	name 308-16-410;
	parent node308-16-410PRUG586;
	longitude 691.508407674;
	constant_power_C 0.0+0.0j;
	constant_power_A 0.0+0.0j;
	latitude 232.275610139;
	nominal_voltage 7200.0;
	constant_power_B 0.0+0.0j;
};

object overhead_line {
	phases ACB;
	from nodePROH17413PROH11877;
	name PROH18641;
	longitude 661.347064488;
	to nodePROH18640PROH18641;
	length 2377.9;
	latitude 59.501369804;
	configuration PROH15855-LINECONFIG;
};

object overhead_line {
	phases ACB;
	from nodePROH18640PROH18641;
	name PROH18640;
	longitude 661.244128801;
	to nodeSWIT_45-APROH18640;
	length 1219.18;
	latitude 0.0;
	configuration PROH15855-LINECONFIG;
};

object overhead_line {
	phases C;
	from nodePROH18640PROH18641;
	name PROH8238;
	longitude 642.595513223;
	to node308-08-830PROH8238;
	length 1571.76;
	latitude 61.19075276;
	configuration PROH7038-LINECONFIG;
};

object load {
	phases C;
	load_class R;
	name 308-08-830;
	parent node308-08-830PROH8238;
	longitude 641.020459805;
	constant_power_C 1557.62+513.619j;
	constant_power_A 0.0+0.0j;
	latitude 62.3231038436;
	nominal_voltage 7200.0;
	constant_power_B 0.0+0.0j;
};

object overhead_line {
	phases C;
	from nodePROH17413PROH11877;
	name PROH17912;
	longitude 654.373800661;
	to nodeFUSE_363PROH17912;
	length 601.325;
	latitude 176.200138192;
	configuration PROH7038-LINECONFIG;
};

object fuse {
	phases C;
	from nodeFUSE_363PROH17912;
	name FUSE_363;
	current_limit 9999.0 A;
	longitude 644.729196904;
	to nodePROH17913FUSE_363;
	latitude 229.365923913;
};

object overhead_line {
	phases C;
	from nodePROH17913FUSE_363;
	name PROH17913;
	longitude 616.966803393;
	to node308-09-310PROH17913;
	length 4529.39;
	latitude 246.151961164;
	configuration PROH7038-LINECONFIG;
};

object load {
	phases C;
	load_class R;
	name 308-09-310;
	parent node308-09-310PROH17913;
	longitude 617.079485921;
	constant_power_C 8320.81+2743.75j;
	constant_power_A 0.0+0.0j;
	latitude 247.461426364;
	nominal_voltage 7200.0;
	constant_power_B 0.0+0.0j;
};

object overhead_line {
	phases AB;
	from nodePROH11876PROH10760;
	name PROH11047;
	longitude 664.169467621;
	to nodeFUSE_388PROH11047;
	length 232.939;
	latitude 464.585691969;
	configuration PROH7578-LINECONFIG;
};

object fuse {
	phases AB;
	from nodeFUSE_388PROH11047;
	name FUSE_388;
	current_limit 9999.0 A;
	longitude 673.017323369;
	to nodePROH11048FUSE_388;
	latitude 320.407373084;
};

object overhead_line {
	phases AB;
	from nodePROH11048FUSE_388;
	name PROH11048;
	longitude 678.19820004;
	to nodePROH7578PROH11048;
	length 1175.64;
	latitude 464.158812803;
	configuration PROH7578-LINECONFIG;
};

object line_configuration {
	name PROH7578-LINECONFIG;
	conductor_A PROH15855_conductor_C;
	spacing PROH7578-LINESPACING;
	conductor_B PROH15855_conductor_C;
};

object line_spacing {
	distance_AN 0.000000;
	name PROH7578-LINESPACING;
	distance_CN 0.000000;
	distance_BC 0.000000;
	distance_AB 3.961621;
	distance_AC 0.000000;
	distance_BN 0.000000;
};

object overhead_line {
	phases AB;
	from nodePROH7578PROH11048;
	name PROH7578;
	longitude 677.750028349;
	to node308-16-380PROH7578;
	length 1705.17;
	latitude 380.957071911;
	configuration PROH7578-LINECONFIG;
};

object load {
	phases AB;
	load_class R;
	name 308-16-380;
	parent node308-16-380PROH7578;
	longitude 676.289496957;
	constant_power_C 0.0+0.0j;
	constant_power_A 10965.7+3615.88j;
	latitude 384.837762425;
	nominal_voltage 7200.0;
	constant_power_B 10965.7+3615.88j;
};

object overhead_line {
	phases B;
	from nodePROH7578PROH11048;
	name PROH9761;
	longitude 758.230518727;
	to nodePROH9762PROH9761;
	length 6706.9;
	latitude 461.634785485;
	configuration PROH4629-LINECONFIG;
};

object overhead_line {
	phases B;
	from nodePROH9762PROH9761;
	name PROH9762;
	longitude 786.750774759;
	to node308-27-210PROH9762;
	length 2390.06;
	latitude 460.776616241;
	configuration PROH4629-LINECONFIG;
};

object load {
	phases B;
	load_class R;
	name 308-27-210;
	parent node308-27-210PROH9762;
	longitude 786.458164345;
	constant_power_C 0.0+0.0j;
	constant_power_A 0.0+0.0j;
	latitude 465.763101359;
	nominal_voltage 7200.0;
	constant_power_B 339.561+111.969j;
};

object line_configuration {
	name PROH4629-LINECONFIG;
	spacing PROH11764-LINESPACING;
	conductor_B PROH15855_conductor_C;
};

object overhead_line {
	phases B;
	from nodePROH9762PROH9761;
	name PROH4629;
	to node308-21-780PROH4629;
	longitude 757.974317914;
	length 974.934;
	latitude 414.063977959;
	configuration PROH4629-LINECONFIG;
};

object load {
	phases B;
	load_class R;
	name 308-21-780;
	parent node308-21-780PROH4629;
	longitude 755.303899151;
	constant_power_C 0.0+0.0j;
	constant_power_A 0.0+0.0j;
	latitude 413.9891784;
	nominal_voltage 7200.0;
	constant_power_B 115.264+38.0078j;
};

object overhead_line {
	phases C;
	from nodePROH11876PROH10760;
	name PROH12950;
	longitude 653.752471731;
	to nodeFUSE_364PROH12950;
	length 640.013;
	latitude 464.599414813;
	configuration PROH7038-LINECONFIG;
};

object fuse {
	phases C;
	from nodeFUSE_364PROH12950;
	name FUSE_364;
	current_limit 9999.0 A;
	longitude 643.66419;
	to nodePROH12951FUSE_364;
	latitude 533.927980702;
};

object overhead_line {
	phases C;
	from nodePROH12951FUSE_364;
	name PROH12951;
	longitude 636.574074982;
	to nodePROH7038PROH12951;
	length 1439.55;
	latitude 464.440621625;
	configuration PROH7038-LINECONFIG;
};

object line_configuration {
	name PROH7038-LINECONFIG;
	spacing PROH11764-LINESPACING;
	conductor_C PROH15855_conductor_C;
};

object overhead_line {
	phases C;
	from nodePROH7038PROH12951;
	name PROH7038;
	longitude 636.678688319;
	to node308-10-610PROH7038;
	length 397.987;
	latitude 483.859948335;
	configuration PROH7038-LINECONFIG;
};

object load {
	phases C;
	load_class R;
	name 308-10-610;
	parent node308-10-610PROH7038;
	longitude 641.357875299;
	constant_power_C 7130.79+2351.35j;
	constant_power_A 0.0+0.0j;
	latitude 486.104140788;
	nominal_voltage 7200.0;
	constant_power_B 0.0+0.0j;
};

object overhead_line {
	phases C;
	from nodePROH7038PROH12951;
	name PROH12952;
	longitude 599.114591301;
	to nodePROH7039PROH12952;
	length 3139.11;
	latitude 464.093629184;
	configuration PROH7038-LINECONFIG;
};

object overhead_line {
	phases C;
	from nodePROH7039PROH12952;
	name PROH7039;
	to node308-03-810PROH7039;
	longitude 586.847389306;
	length 1686.35;
	latitude 498.347864852;
	configuration PROH7038-LINECONFIG;
};

object load {
	phases C;
	load_class R;
	name 308-03-810;
	parent node308-03-810PROH7039;
	longitude 582.371003187;
	constant_power_C 2211.82+729.338j;
	constant_power_A 0.0+0.0j;
	latitude 493.82351404;
	nominal_voltage 7200.0;
	constant_power_B 0.0+0.0j;
};

object overhead_line {
	phases C;
	from nodePROH7039PROH12952;
	name PROH12953;
	longitude 581.771665222;
	to node308-04-750PROH12953;
	length 4382.88;
	latitude 325.009434487;
	configuration PROH7038-LINECONFIG;
};

object load {
	phases C;
	load_class R;
	name 308-04-750;
	parent node308-04-750PROH12953;
	longitude 584.176583652;
	constant_power_C 3928.32+1295.35j;
	constant_power_A 0.0+0.0j;
	latitude 320.169853849;
	nominal_voltage 7200.0;
	constant_power_B 0.0+0.0j;
};

object overhead_line {
	phases A;
	from nodePROH7759PROH7760;
	name PROH13736;
	longitude 664.044123352;
	to nodeRECL_752PROH13736;
	length 716.756;
	latitude 724.24634505;
	configuration PROH11764-LINECONFIG;
};

object fuse {
	phases A;
	from nodeRECL_752PROH13736;
	name RECL_752;
	current_limit 9999.0 A;
	longitude 674.917724105;
	to nodePROH13737RECL_752;
	latitude 672.932441826;
};

object overhead_line {
	phases A;
	from nodePROH13737RECL_752;
	name PROH13737;
	longitude 702.164240843;
	to nodePROH2102PROH13737;
	length 3194.62;
	latitude 722.710854311;
	configuration PROH11764-LINECONFIG;
};

object overhead_line {
	phases A;
	from nodePROH2102PROH13737;
	name PROH2102;
	longitude 701.915110123;
	to node308-15-780PROH2102;
	length 947.905;
	latitude 676.458912272;
	configuration PROH11764-LINECONFIG;
};

object load {
	phases A;
	load_class R;
	name 308-15-780;
	parent node308-15-780PROH2102;
	longitude 702.164903699;
	constant_power_C 0.0+0.0j;
	constant_power_A 1943.91+640.996j;
	latitude 678.18736262;
	nominal_voltage 7200.0;
	constant_power_B 0.0+0.0j;
};

object overhead_line {
	phases A;
	from nodePROH2102PROH13737;
	name PROH13738;
	longitude 723.146344987;
	to nodePROH15340PROH13738;
	length 1758.38;
	latitude 721.865427698;
	configuration PROH11764-LINECONFIG;
};

object overhead_line {
	phases A;
	from nodePROH15340PROH13738;
	name PROH15340;
	longitude 730.858612779;
	to nodePROH15341PROH15340;
	length 1482.39;
	latitude 680.652228264;
	configuration PROH11764-LINECONFIG;
};

object overhead_line {
	phases A;
	from nodePROH15341PROH15340;
	name PROH15341;
	longitude 738.589814019;
	to nodePROH15342PROH15341;
	length 647.949;
	latitude 680.171927945;
	configuration PROH11764-LINECONFIG;
};

object overhead_line {
	phases A;
	from nodePROH15342PROH15341;
	name PROH15342;
	longitude 742.134204952;
	to nodePROH15343PROH15342;
	length 297.189;
	latitude 679.681825539;
	configuration PROH11764-LINECONFIG;
};

object overhead_line {
	phases A;
	from nodePROH15343PROH15342;
	name PROH15343;
	longitude 755.770008241;
	to nodePROH15344PROH15343;
	length 1142.96;
	latitude 678.453138874;
	configuration PROH11764-LINECONFIG;
};

object overhead_line {
	phases A;
	from nodePROH15344PROH15343;
	name PROH15344;
	longitude 772.950322296;
	to nodePROH1982PROH15344;
	length 1440.06;
	latitude 676.904905456;
	configuration PROH11764-LINECONFIG;
};

object overhead_line {
	phases A;
	from nodePROH1982PROH15344;
	name PROH1982;
	longitude 800.0;
	to node308-27-360PROH1982;
	length 3329.9;
	latitude 623.712623562;
	configuration PROH11764-LINECONFIG;
};

object load {
	phases A;
	load_class R;
	name 308-27-360;
	parent node308-27-360PROH1982;
	longitude 795.882982575;
	constant_power_C 0.0+0.0j;
	constant_power_A 0.0+0.0j;
	latitude 619.429365355;
	nominal_voltage 7200.0;
	constant_power_B 0.0+0.0j;
};

object overhead_line {
	phases A;
	from nodePROH1982PROH15344;
	name PROH14080;
	longitude 773.872429551;
	to node308-23-860PROH14080;
	length 3507.68;
	latitude 848.057969324;
	configuration PROH11764-LINECONFIG;
};

object load {
	phases A;
	load_class R;
	name 308-23-860;
	parent node308-23-860PROH14080;
	longitude 770.386824936;
	constant_power_C 0.0+0.0j;
	constant_power_A 1803.73+594.77j;
	latitude 850.904443895;
	nominal_voltage 7200.0;
	constant_power_B 0.0+0.0j;
};

object overhead_line {
	phases A;
	from node308-23-860PROH14080;
	name PROH14081;
	longitude 775.136776995;
	to nodePRUG588PROH14081;
	length 4809.76;
	latitude 1082.74447532;
	configuration PROH11764-LINECONFIG;
};

object underground_line {
	phases A;
	from nodePRUG588PROH14081;
	name PRUG588;
	longitude 775.426171285;
	to node308-24-850PRUG588;
	length 1101.18;
	latitude 1136.47537975;
	configuration PRUG6578-LINECONFIG;
};

object load {
	phases A;
	load_class R;
	name 308-24-850;
	parent node308-24-850PRUG588;
	longitude 778.864997691;
	constant_power_C 0.0+0.0j;
	constant_power_A 5358.22+1766.85j;
	latitude 1131.53735022;
	nominal_voltage 7200.0;
	constant_power_B 0.0+0.0j;
};

object overhead_line {
	phases A;
	from nodePRUG588PROH14081;
	name PROH14082;
	longitude 784.244368608;
	to nodePROH14083PROH14082;
	length 763.401;
	latitude 1081.92355385;
	configuration PROH11764-LINECONFIG;
};

object overhead_line {
	phases A;
	from nodePROH14083PROH14082;
	name PROH14083;
	longitude 786.46018215;
	to node308-25-141PROH14083;
	length 804.157;
	latitude 1120.11037108;
	configuration PROH11764-LINECONFIG;
};

object load {
	phases A;
	load_class R;
	name 308-25-141;
	parent node308-25-141PROH14083;
	longitude 788.443769876;
	constant_power_C 0.0+0.0j;
	constant_power_A 0.0+0.0j;
	latitude 1116.35026324;
	nominal_voltage 7200.0;
	constant_power_B 0.0+0.0j;
};

object load {
	phases A;
	load_class R;
	name 308-25-140;
	parent nodePROH14083PROH14082;
	longitude 785.263889168;
	constant_power_C 0.0+0.0j;
	constant_power_A 0.0+0.0j;
	latitude 1118.96595341;
	nominal_voltage 7200.0;
	constant_power_B 0.0+0.0j;
};

object overhead_line {
	phases A;
	from nodePROH15344PROH15343;
	name PROH1981;
	longitude 755.603202095;
	to node308-22-670PROH1981;
	length 522.838;
	latitude 652.944780157;
	configuration PROH11764-LINECONFIG;
};

object load {
	phases A;
	load_class R;
	name 308-22-670;
	parent node308-22-670PROH1981;
	longitude 758.477785034;
	constant_power_C 0.0+0.0j;
	constant_power_A 4009.32+1322.05j;
	latitude 648.930205361;
	nominal_voltage 7200.0;
	constant_power_B 0.0+0.0j;
};

object overhead_line {
	phases A;
	from nodePROH15343PROH15342;
	name PROH17352;
	longitude 742.965239889;
	to nodePROH17353PROH17352;
	length 2082.77;
	latitude 781.276128574;
	configuration PROH11764-LINECONFIG;
};

object overhead_line {
	phases A;
	from nodePROH17353PROH17352;
	name PROH1980;
	longitude 755.686365502;
	to node308-23-540PROH1980;
	length 1067.82;
	latitude 778.262489054;
	configuration PROH11764-LINECONFIG;
};

object load {
	phases A;
	load_class R;
	name 308-23-540;
	parent node308-23-540PROH1980;
	longitude 753.453762216;
	constant_power_C 0.0+0.0j;
	constant_power_A 5663.51+1867.52j;
	latitude 779.760101005;
	nominal_voltage 7200.0;
	constant_power_B 0.0+0.0j;
};

object underground_line {
	phases A;
	from node308-23-540PROH1980;
	name PRUG587;
	to node308-23-541PRUG587;
	longitude 755.895232689;
	length 794.699;
	latitude 817.038899448;
	configuration PRUG6578-LINECONFIG;
};

object load {
	phases A;
	load_class R;
	name 308-23-541;
	parent node308-23-541PRUG587;
	longitude 756.570472341;
	constant_power_C 0.0+0.0j;
	constant_power_A 180.684+59.5798j;
	latitude 813.823763578;
	nominal_voltage 7200.0;
	constant_power_B 0.0+0.0j;
};

object overhead_line {
	phases A;
	from nodePROH15342PROH15341;
	name PROH8978;
	longitude 738.931215389;
	to nodePRUG3618PROH8978;
	length 568.209;
	latitude 707.868593752;
	configuration PROH11764-LINECONFIG;
};

object underground_line {
	phases A;
	from nodePRUG3618PROH8978;
	name PRUG3618;
	longitude 737.238109034;
	to node308-23-310PRUG3618;
	length 417.431;
	latitude 727.028656308;
	configuration PRUG6578-LINECONFIG;
};

object load {
	phases A;
	load_class R;
	name 308-23-310;
	parent node308-23-310PRUG3618;
	longitude 734.895019272;
	constant_power_C 0.0+0.0j;
	constant_power_A 3962.59+1306.65j;
	latitude 724.087208408;
	nominal_voltage 7200.0;
	constant_power_B 0.0+0.0j;
};

object underground_line {
	phases A;
	from nodePROH15341PROH15340;
	name PRUG3822;
	longitude 732.114452146;
	to node308-23-220PRUG3822;
	length 1224.44;
	latitude 740.190845892;
	configuration PRUG6578-LINECONFIG;
};

object load {
	phases A;
	load_class R;
	name 308-23-220;
	parent node308-23-220PRUG3822;
	longitude 729.133115731;
	constant_power_C 0.0+0.0j;
	constant_power_A 186.915+61.6342j;
	latitude 744.82019933;
	nominal_voltage 7200.0;
	constant_power_B 0.0+0.0j;
};

object overhead_line {
	phases B;
	from nodePROH13250PROH13249;
	name PROH4728;
	longitude 557.05283978;
	to node308-02-680PROH4728;
	length 501.434;
	latitude 926.179308873;
	configuration PROH4629-LINECONFIG;
};

object load {
	phases B;
	load_class R;
	name 308-02-680;
	parent node308-02-680PROH4728;
	longitude 559.153275923;
	constant_power_C 0.0+0.0j;
	constant_power_A 0.0+0.0j;
	latitude 926.840807006;
	nominal_voltage 7200.0;
	constant_power_B 0.0+0.0j;
};

object load {
	phases C;
	load_class R;
	name 308-02-280;
	parent nodePROH13249PROH13248;
	longitude 554.340701838;
	constant_power_C 5358.22+1766.85j;
	constant_power_A 0.0+0.0j;
	latitude 949.251111212;
	nominal_voltage 7200.0;
	constant_power_B 0.0+0.0j;
};

object fuse {
	phases ACB;
	from GILMORE_CITY_SUBx;
	name RECL_649;
	current_limit 9999.0 A;
	longitude 465.78878741;
	to nodePRUG5601RECL_649;
	latitude 979.893059666;
};

object underground_line {
	phases ACB;
	from nodePRUG5601RECL_649;
	name PRUG5601;
	longitude 462.646792336;
	to node288-26-870PRUG5601;
	length 1831.47;
	latitude 915.822955429;
	configuration PRUG5793-LINECONFIG;
};

object load {
	phases A;
	load_class R;
	name 288-26-870;
	parent node288-26-870PRUG5601;
	longitude 455.776271338;
	constant_power_C 0.0+0.0j;
	constant_power_A 0.0+0.0j;
	latitude 911.918009462;
	nominal_voltage 7200.0;
	constant_power_B 0.0+0.0j;
};

object underground_line {
	phases ACB;
	from node288-26-870PRUG5601;
	name PRUG5602;
	longitude 460.473638989;
	to nodePROH12251PRUG5602;
	length 3759.11;
	latitude 732.57220433;
	configuration PRUG5793-LINECONFIG;
};

object overhead_line {
	phases ACB;
	from nodePROH12251PRUG5602;
	name PROH12251;
	longitude 422.985515465;
	to nodePROH12252PROH12251;
	length 3141.69;
	latitude 734.271879382;
	configuration PROH15855-LINECONFIG;
};

object overhead_line {
	phases ACB;
	from nodePROH12252PROH12251;
	name PROH12252;
	longitude 405.157149941;
	to nodePROH7762PROH12252;
	length 1519.48;
	latitude 720.75289527;
	configuration PROH15855-LINECONFIG;
};

object overhead_line {
	phases ACB;
	from nodePROH7762PROH12252;
	name PROH7762;
	to nodePROH17832PROH7762;
	longitude 403.545649187;
	length 135.442;
	latitude 721.259661161;
	configuration PROH15855-LINECONFIG;
};

object overhead_line {
	phases ACB;
	from nodePROH17832PROH7762;
	name PROH17832;
	longitude 400.279867649;
	to node288-23-710PROH17832;
	length 273.779;
	latitude 721.63213896;
	configuration PROH15855-LINECONFIG;
};

object load {
	phases C;
	load_class R;
	name 288-23-710;
	parent node288-23-710PROH17832;
	longitude 400.295508424;
	constant_power_C 2869.14+946.086j;
	constant_power_A 0.0+0.0j;
	latitude 727.059295011;
	nominal_voltage 7200.0;
	constant_power_B 0.0+0.0j;
};

object overhead_line {
	phases ACB;
	from node288-23-710PROH17832;
	name PROH17833;
	longitude 341.713414888;
	to nodePROH18866PROH17833;
	length 4965.17;
	latitude 721.125373118;
	configuration PROH15855-LINECONFIG;
};

object overhead_line {
	phases B;
	from nodePROH18866PROH17833;
	name PROH18866;
	longitude 342.105864685;
	to nodeFUSE_338PROH18866;
	length 268.075;
	latitude 734.110145603;
	configuration PROH4629-LINECONFIG;
};

object fuse {
	phases B;
	from nodeFUSE_338PROH18866;
	name FUSE_338;
	current_limit 9999.0 A;
	longitude 356.15789694;
	to nodePROH18867FUSE_338;
	latitude 747.109682493;
};

object overhead_line {
	phases B;
	from nodePROH18867FUSE_338;
	name PROH18867;
	longitude 341.949364089;
	to nodePROH4782PROH18867;
	length 890.141;
	latitude 777.549390056;
	configuration PROH4629-LINECONFIG;
};

object overhead_line {
	phases B;
	from nodePROH4782PROH18867;
	name PROH4782;
	longitude 352.724897336;
	to node288-23-240PROH4782;
	length 905.624;
	latitude 774.179936222;
	configuration PROH4629-LINECONFIG;
};

object load {
	phases B;
	load_class R;
	name 288-23-240;
	parent node288-23-240PROH4782;
	longitude 350.124698112;
	constant_power_C 0.0+0.0j;
	constant_power_A 0.0+0.0j;
	latitude 770.360643811;
	nominal_voltage 7200.0;
	constant_power_B 1666.65+549.572j;
};

object overhead_line {
	phases B;
	from nodePROH4782PROH18867;
	name PROH18868;
	longitude 347.043422479;
	to nodePROH4783PROH18868;
	length 2296.79;
	latitude 887.69254901;
	configuration PROH4629-LINECONFIG;
};

object overhead_line {
	phases B;
	from nodePROH4783PROH18868;
	name PROH4783;
	longitude 335.385566214;
	to node288-14-760PROH4783;
	length 977.49;
	latitude 889.310867066;
	configuration PROH4629-LINECONFIG;
};

object load {
	phases B;
	load_class R;
	name 288-14-760;
	parent node288-14-760PROH4783;
	longitude 331.756870943;
	constant_power_C 0.0+0.0j;
	constant_power_A 0.0+0.0j;
	latitude 888.975405482;
	nominal_voltage 7200.0;
	constant_power_B 623.048+205.447j;
};

object overhead_line {
	phases B;
	from nodePROH4783PROH18868;
	name PROH18869;
	longitude 347.288598756;
	to nodePROH18870PROH18869;
	length 474.985;
	latitude 910.852827189;
	configuration PROH4629-LINECONFIG;
};

object overhead_line {
	phases B;
	from nodePROH18870PROH18869;
	name PROH18870;
	longitude 348.162533542;
	to nodePROH11284PROH18870;
	length 1693.46;
	latitude 993.425766671;
	configuration PROH4629-LINECONFIG;
};

object overhead_line {
	phases B;
	from nodePROH11284PROH18870;
	name PROH11284;
	longitude 350.649766567;
	to nodePROH11285PROH11284;
	length 208.431;
	latitude 993.454192572;
	configuration PROH4629-LINECONFIG;
};

object overhead_line {
	phases B;
	from nodePROH11285PROH11284;
	name PROH11285;
	longitude 361.387912227;
	to node288-24-380PROH11285;
	length 1264.87;
	latitude 1012.00358757;
	configuration PROH4629-LINECONFIG;
};

object load {
	phases B;
	load_class R;
	name 288-24-380;
	parent node288-24-380PROH11285;
	longitude 365.849690635;
	constant_power_C 0.0+0.0j;
	constant_power_A 0.0+0.0j;
	latitude 1009.09951402;
	nominal_voltage 7200.0;
	constant_power_B 0.0+0.0j;
};

object load {
	phases B;
	load_class R;
	name 288-24-210;
	parent nodePROH11285PROH11284;
	longitude 360.719390875;
	constant_power_C 0.0+0.0j;
	constant_power_A 0.0+0.0j;
	latitude 1010.0162266;
	nominal_voltage 7200.0;
	constant_power_B 0.0+0.0j;
};

object overhead_line {
	phases B;
	from nodePROH11284PROH18870;
	name PROH18871;
	longitude 339.46189141;
	to nodePROH18872PROH18871;
	length 1796.33;
	latitude 1043.20105471;
	configuration PROH4629-LINECONFIG;
};

object overhead_line {
	phases B;
	from nodePROH18872PROH18871;
	name PROH4785;
	longitude 334.175263;
	to node288-13-841PROH4785;
	length 443.274;
	latitude 1043.934738;
	configuration PROH4629-LINECONFIG;
};

object load {
	phases B;
	load_class R;
	name 288-13-841;
	parent node288-13-841PROH4785;
	longitude 338.037578181;
	constant_power_C 0.0+0.0j;
	constant_power_A 0.0+0.0j;
	latitude 1042.01862444;
	nominal_voltage 7200.0;
	constant_power_B 2476.62+816.654j;
};

object overhead_line {
	phases B;
	from nodePROH18870PROH18869;
	name PROH4784;
	longitude 353.518904173;
	to node288-23-170PROH4784;
	length 522.4;
	latitude 909.98779645;
	configuration PROH4629-LINECONFIG;
};

object load {
	phases B;
	load_class R;
	name 288-23-170;
	parent node288-23-170PROH4784;
	longitude 351.52858101;
	constant_power_C 0.0+0.0j;
	constant_power_A 0.0+0.0j;
	latitude 906.363281487;
	nominal_voltage 7200.0;
	constant_power_B 3598.11+1186.46j;
};

object overhead_line {
	phases ACB;
	from nodePROH18866PROH17833;
	name PROH7763;
	to nodePROH7655PROH7763;
	longitude 340.662608061;
	length 88.1115;
	latitude 720.974911649;
	configuration PROH15855-LINECONFIG;
};

object overhead_line {
	phases AC;
	from nodePROH7655PROH7763;
	name PROH7655;
	longitude 278.48106348;
	to nodePROH7587PROH7655;
	length 5211.47;
	latitude 725.044721851;
	configuration PROH7587-LINECONFIG;
};

object line_configuration {
	name PROH7587-LINECONFIG;
	spacing PROH7587-LINESPACING;
	conductor_A PROH15855_conductor_C;
	conductor_C PROH15855_conductor_C;
};

object line_spacing {
	distance_AN 0.000000;
	name PROH7587-LINESPACING;
	distance_CN 0.000000;
	distance_BC 0.000000;
	distance_AB 0.000000;
	distance_AC 7.333333;
	distance_BN 0.000000;
};

object overhead_line {
	phases AC;
	from nodePROH7587PROH7655;
	name PROH7587;
	longitude 272.825592164;
	to nodePROH17363PROH7587;
	length 695.845;
	latitude 707.420640189;
	configuration PROH7587-LINECONFIG;
};

object overhead_line {
	phases C;
	from nodePROH17363PROH7587;
	name PROH17363;
	longitude 273.258545184;
	to nodeFUSE_317PROH17363;
	length 623.153;
	latitude 737.782482754;
	configuration PROH7038-LINECONFIG;
};

object fuse {
	phases C;
	from nodeFUSE_317PROH17363;
	name FUSE_317;
	current_limit 9999.0 A;
	longitude 294.478987685;
	to nodePROH17364FUSE_317;
	latitude 771.163172259;
};

object overhead_line {
	phases C;
	from nodePROH17364FUSE_317;
	name PROH17364;
	longitude 274.438890402;
	to nodePROH7192PROH17364;
	length 1698.58;
	latitude 820.542151266;
	configuration PROH7038-LINECONFIG;
};

object overhead_line {
	phases C;
	from nodePROH7192PROH17364;
	name PROH7192;
	longitude 288.056718884;
	to node288-14-130PROH7192;
	length 1141.83;
	latitude 818.652316484;
	configuration PROH7038-LINECONFIG;
};

object load {
	phases C;
	load_class R;
	name 288-14-130;
	parent node288-14-130PROH7192;
	longitude 289.211217466;
	constant_power_C 7102.75+2342.1j;
	constant_power_A 0.0+0.0j;
	latitude 815.424489486;
	nominal_voltage 7200.0;
	constant_power_B 0.0+0.0j;
};

object overhead_line {
	phases C;
	from nodePROH7192PROH17364;
	name PROH17365;
	to nodePROH17366PROH17365;
	longitude 277.244037728;
	length 4036.55;
	latitude 1017.2143561;
	configuration PROH7038-LINECONFIG;
};

object overhead_line {
	phases C;
	from nodePROH17366PROH17365;
	name PROH17366;
	longitude 279.010361427;
	to nodePROH17367PROH17366;
	length 2541.88;
	latitude 1141.06224794;
	configuration PROH7038-LINECONFIG;
};

object overhead_line {
	phases C;
	from nodePROH17367PROH17366;
	name PROH17367;
	longitude 297.284022671;
	to node288-13-350PROH17367;
	length 1704.12;
	latitude 1147.43798984;
	configuration PROH7038-LINECONFIG;
};

object load {
	phases C;
	load_class R;
	name 288-13-350;
	parent node288-13-350PROH17367;
	longitude 300.431500145;
	constant_power_C 24.9219+8.2179j;
	constant_power_A 0.0+0.0j;
	latitude 1144.57952994;
	nominal_voltage 7200.0;
	constant_power_B 0.0+0.0j;
};

object load {
	phases C;
	load_class R;
	name 288-12-850;
	parent nodePROH17367PROH17366;
	longitude 300.783004853;
	constant_power_C 6386.25+2105.84j;
	constant_power_A 0.0+0.0j;
	latitude 1146.98466017;
	nominal_voltage 7200.0;
	constant_power_B 0.0+0.0j;
};

object underground_line {
	phases C;
	from nodePROH17366PROH17365;
	name PRUG2119;
	longitude 290.213215588;
	to node288-13-110PRUG2119;
	length 1087.44;
	latitude 1015.41421004;
	configuration PRUG6578-LINECONFIG;
};

object load {
	phases C;
	load_class R;
	name 288-13-110;
	parent node288-13-110PRUG2119;
	longitude 292.202278829;
	constant_power_C 37632.1+12409.0j;
	constant_power_A 0.0+0.0j;
	latitude 1012.39816548;
	nominal_voltage 7200.0;
	constant_power_B 0.0+0.0j;
};

object overhead_line {
	phases AC;
	from nodePROH17363PROH7587;
	name PROH7654;
	longitude 234.716379375;
	to nodePROH18124PROH7654;
	length 3194.02;
	latitude 710.086307054;
	configuration PROH7587-LINECONFIG;
};

object overhead_line {
	phases C;
	from nodePROH18124PROH7654;
	name PROH18124;
	to nodeREGU_16PROH18124;
	longitude 228.41812921;
	length 528.091;
	latitude 709.219806043;
	configuration PROH7038-LINECONFIG;
};

object regulator_configuration {
	Control OUTPUT_VOLTAGE;
	Type A;
	raise_taps 16;
	name REGU_16-CONFIG;
	band_center 120.0;
	current_transducer_ratio 700;
	tap_pos_C 1;
	time_delay 30.0;
	connect_type WYE_WYE;
	regulation 0.1;
	CT_phase C;
	power_transducer_ratio 60.0;
	lower_taps 16;
	control_level INDIVIDUAL;
	PT_phase C;
	band_width 2;
};

object regulator {
	phases C;
	from nodeREGU_16PROH18124;
	name REGU_16;
	longitude 240.497457098;
	to nodePROH18125REGU_16;
	latitude 638.452759033;
	configuration REGU_16-CONFIG;
};

object overhead_line {
	phases C;
	from nodePROH18125REGU_16;
	name PROH18125;
	longitude 226.015257911;
	to nodeRECL_614PROH18125;
	length 201.474;
	latitude 708.889477038;
	configuration PROH7038-LINECONFIG;
};

object fuse {
	phases C;
	from nodeRECL_614PROH18125;
	name RECL_614;
	current_limit 9999.0 A;
	longitude 231.565217154;
	to nodePROH18126RECL_614;
	latitude 619.4292513;
};

object overhead_line {
	phases C;
	from nodePROH18126RECL_614;
	name PROH18126;
	longitude 221.575362428;
	to node288-10-181PROH18126;
	length 372.273;
	latitude 708.278809433;
	configuration PROH7038-LINECONFIG;
};

object load {
	phases C;
	load_class R;
	name 288-10-181;
	parent node288-10-181PROH18126;
	longitude 216.609497092;
	constant_power_C 0.0+0.0j;
	constant_power_A 0.0+0.0j;
	latitude 704.563918915;
	nominal_voltage 7200.0;
	constant_power_B 0.0+0.0j;
};

object overhead_line {
	phases C;
	from node288-10-181PROH18126;
	name PROH18127;
	longitude 220.200050541;
	to nodePROH18128PROH18127;
	length 115.316;
	latitude 708.089629917;
	configuration PROH7038-LINECONFIG;
};

object overhead_line {
	phases C;
	from nodePROH18128PROH18127;
	name PROH18128;
	longitude 178.025177605;
	to nodePROH18129PROH18128;
	length 3536.25;
	latitude 702.288778121;
	configuration PROH7038-LINECONFIG;
};

object overhead_line {
	phases C;
	from nodePROH18129PROH18128;
	name PROH18129;
	to nodePROH18130PROH18129;
	longitude 163.750190425;
	length 1196.92;
	latitude 700.325428002;
	configuration PROH7038-LINECONFIG;
};

object overhead_line {
	phases C;
	from nodePROH18130PROH18129;
	name PROH18130;
	longitude 159.34492638;
	to node288-02-210PROH18130;
	length 369.369;
	latitude 699.719661465;
	configuration PROH7038-LINECONFIG;
};

object load {
	phases C;
	load_class R;
	name 288-02-210;
	parent node288-02-210PROH18130;
	longitude 160.834898664;
	constant_power_C 19439.1+6409.96j;
	constant_power_A 0.0+0.0j;
	latitude 748.197529698;
	nominal_voltage 7200.0;
	constant_power_B 0.0+0.0j;
};

object overhead_line {
	phases C;
	from node288-02-210PROH18130;
	name PROH18131;
	longitude 155.957635196;
	to nodePROH7173PROH18131;
	length 284.015;
	latitude 699.253574097;
	configuration PROH7038-LINECONFIG;
};

object overhead_line {
	phases C;
	from nodePROH7173PROH18131;
	name PROH7173;
	longitude 135.955397339;
	to node268-34-780PROH7173;
	length 1676.35;
	latitude 698.105754322;
	configuration PROH7038-LINECONFIG;
};

object load {
	phases C;
	load_class R;
	name 268-34-780;
	parent node268-34-780PROH7173;
	longitude 133.334317946;
	constant_power_C 4993.73+1646.66j;
	constant_power_A 0.0+0.0j;
	latitude 700.783557477;
	nominal_voltage 7200.0;
	constant_power_B 0.0+0.0j;
};

object overhead_line {
	phases C;
	from nodePROH7173PROH18131;
	name PROH7172;
	longitude 155.730793214;
	to nodePRUG2110PROH7172;
	length 3502.27;
	latitude 528.3254672;
	configuration PROH7038-LINECONFIG;
};

object underground_line {
	phases C;
	from nodePRUG2110PROH7172;
	name PRUG2110;
	longitude 137.162105597;
	to node268-34-830PRUG2110;
	length 1562.92;
	latitude 521.183695258;
	configuration PRUG6578-LINECONFIG;
};

object load {
	phases C;
	load_class R;
	name 268-34-830;
	parent node268-34-830PRUG2110;
	longitude 140.152874944;
	constant_power_C 12937.6+4266.12j;
	constant_power_A 0.0+0.0j;
	latitude 516.76150952;
	nominal_voltage 7200.0;
	constant_power_B 0.0+0.0j;
};

object overhead_line {
	phases C;
	from nodePROH7173PROH18131;
	name PROH17955;
	longitude 142.030280658;
	to nodePROH7165PROH17955;
	length 3876.87;
	latitude 829.710986625;
	configuration PROH7038-LINECONFIG;
};

object overhead_line {
	phases C;
	from nodePROH7165PROH17955;
	name PROH7165;
	longitude 142.370363876;
	to node268-35-850PROH7165;
	length 918.243;
	latitude 874.504874068;
	configuration PROH7038-LINECONFIG;
};

object load {
	phases C;
	load_class R;
	name 268-35-850;
	parent node268-35-850PROH7165;
	longitude 139.755981403;
	constant_power_C 4744.51+1564.48j;
	constant_power_A 0.0+0.0j;
	latitude 875.006157241;
	nominal_voltage 7200.0;
	constant_power_B 0.0+0.0j;
};

object overhead_line {
	phases C;
	from nodePROH7165PROH17955;
	name PROH17956;
	longitude 131.890216513;
	to nodePROH11034PROH17956;
	length 849.92;
	latitude 830.574056938;
	configuration PROH7038-LINECONFIG;
};

object overhead_line {
	phases C;
	from nodePROH11034PROH17956;
	name PROH11034;
	longitude 105.21453449;
	to node268-35-340PROH11034;
	length 2235.9;
	latitude 832.844701286;
	configuration PROH7038-LINECONFIG;
};

object load {
	phases C;
	load_class R;
	name 268-35-340;
	parent node268-35-340PROH11034;
	longitude 105.138361855;
	constant_power_C 4591.87+1514.15j;
	constant_power_A 0.0+0.0j;
	latitude 812.249874889;
	nominal_voltage 7200.0;
	constant_power_B 0.0+0.0j;
};

object overhead_line {
	phases C;
	from node268-35-340PROH11034;
	name PROH11035;
	longitude 88.4199596392;
	to nodePROH16705PROH11035;
	length 2012.21;
	latitude 870.667372439;
	configuration PROH7038-LINECONFIG;
};

object overhead_line {
	phases C;
	from nodePROH16705PROH11035;
	name PROH16705;
	to nodePROH16706PROH16705;
	longitude 87.9466232402;
	length 4093.67;
	latitude 670.882527388;
	configuration PROH7038-LINECONFIG;
};

object overhead_line {
	phases C;
	from nodePROH16706PROH16705;
	name PROH16706;
	longitude 87.9443464236;
	to nodePROH16707PROH16706;
	length 429.693;
	latitude 649.911046405;
	configuration PROH7038-LINECONFIG;
};

object overhead_line {
	phases C;
	from nodePROH16707PROH16706;
	name PROH16707;
	longitude 87.72397538;
	to nodePROH7171PROH16707;
	length 2095.52;
	latitude 547.64187241;
	configuration PROH7038-LINECONFIG;
};

object overhead_line {
	phases C;
	from nodePROH7171PROH16707;
	name PROH7171;
	longitude 75.3837956953;
	to node268-27-830PROH7171;
	length 1034.6;
	latitude 549.208729691;
	configuration PROH7038-LINECONFIG;
};

object load {
	phases C;
	load_class R;
	name 268-27-830;
	parent node268-27-830PROH7171;
	longitude 76.29663934;
	constant_power_C 5171.3+1705.21j;
	constant_power_A 0.0+0.0j;
	latitude 552.909133735;
	nominal_voltage 7200.0;
	constant_power_B 0.0+0.0j;
};

object overhead_line {
	phases C;
	from nodePROH7171PROH16707;
	name PROH16708;
	longitude 87.574544876;
	to nodePROH16709PROH16708;
	length 1421.49;
	latitude 478.26788018;
	configuration PROH7038-LINECONFIG;
};

object overhead_line {
	phases C;
	from nodePROH16709PROH16708;
	name PROH16709;
	longitude 54.5214037256;
	to nodePROH16710PROH16709;
	length 2771.18;
	latitude 482.465116978;
	configuration PROH7038-LINECONFIG;
};

object underground_line {
	phases C;
	from nodePROH16710PROH16709;
	name PRUG2109;
	to node268-27-610PRUG2109;
	longitude 54.8239795232;
	length 817.172;
	latitude 522.328574441;
	configuration PRUG6578-LINECONFIG;
};

object load {
	phases C;
	load_class R;
	name 268-27-610;
	parent node268-27-610PRUG2109;
	longitude 57.0163675503;
	constant_power_C 747.658+246.537j;
	constant_power_A 0.0+0.0j;
	latitude 519.052629637;
	nominal_voltage 7200.0;
	constant_power_B 0.0+0.0j;
};

object overhead_line {
	phases C;
	from nodePROH16709PROH16708;
	name PROH11665;
	longitude 96.1149716224;
	to nodePROH7170PROH11665;
	length 716.031;
	latitude 477.183773703;
	configuration PROH7038-LINECONFIG;
};

object overhead_line {
	phases C;
	from nodePROH7170PROH11665;
	name PROH7170;
	longitude 96.2844140719;
	to node268-34-210PROH7170;
	length 457.73;
	latitude 499.512838218;
	configuration PROH7038-LINECONFIG;
};

object load {
	phases C;
	load_class R;
	name 268-34-210;
	parent node268-34-210PROH7170;
	longitude 92.9828475587;
	constant_power_C 2900.29+956.358j;
	constant_power_A 0.0+0.0j;
	latitude 501.232067367;
	nominal_voltage 7200.0;
	constant_power_B 0.0+0.0j;
};

object overhead_line {
	phases C;
	from nodePROH7170PROH11665;
	name PROH11666;
	longitude 119.320678375;
	to node268-34-610PROH11666;
	length 1945.57;
	latitude 474.23727818;
	configuration PROH7038-LINECONFIG;
};

object load {
	phases C;
	load_class R;
	name 268-34-610;
	parent node268-34-610PROH11666;
	longitude 118.038384466;
	constant_power_C 0.0+0.0j;
	constant_power_A 0.0+0.0j;
	latitude 478.411055841;
	nominal_voltage 7200.0;
	constant_power_B 0.0+0.0j;
};

object load {
	phases C;
	load_class R;
	name 268-27-860;
	parent nodePROH16707PROH16706;
	longitude 84.1270591778;
	constant_power_C 0.0+0.0j;
	constant_power_A 0.0+0.0j;
	latitude 544.659268783;
	nominal_voltage 7200.0;
	constant_power_B 0.0+0.0j;
};

object underground_line {
	phases C;
	from nodePROH16706PROH16705;
	name PRUG3654;
	to node268-34-160PRUG3654;
	longitude 91.2588995952;
	length 279.939;
	latitude 672.65669799;
	configuration PRUG6578-LINECONFIG;
};

object load {
	phases C;
	load_class R;
	name 268-34-160;
	parent node268-34-160PRUG3654;
	longitude 89.1139763968;
	constant_power_C 10024.9+3305.65j;
	constant_power_A 0.0+0.0j;
	latitude 668.334988239;
	nominal_voltage 7200.0;
	constant_power_B 0.0+0.0j;
};

object overhead_line {
	phases C;
	from nodePROH16705PROH11035;
	name PROH16092;
	longitude 59.0015627658;
	to nodePROH16093PROH16092;
	length 2699.73;
	latitude 839.193487554;
	configuration PROH7038-LINECONFIG;
};

object overhead_line {
	phases C;
	from nodePROH16093PROH16092;
	name PROH16093;
	longitude 39.4567236514;
	to node268-26-340PROH16093;
	length 1637.98;
	latitude 840.170261569;
	configuration PROH7038-LINECONFIG;
};

object load {
	phases C;
	load_class R;
	name 268-26-340;
	parent node268-26-340PROH16093;
	longitude 44.3187181565;
	constant_power_C 0.0+0.0j;
	constant_power_A 0.0+0.0j;
	latitude 812.454460379;
	nominal_voltage 7200.0;
	constant_power_B 0.0+0.0j;
};

object overhead_line {
	phases C;
	from node268-26-340PROH16093;
	name PROH16094;
	longitude 17.5788753036;
	to nodePROH16095PROH16094;
	length 1833.5;
	latitude 841.263189871;
	configuration PROH7038-LINECONFIG;
};

object overhead_line {
	phases C;
	from nodePROH16095PROH16094;
	name PROH16095;
	longitude 0.0;
	to node268-23-740PROH16095;
	length 1722.74;
	latitude 822.705953309;
	configuration PROH7038-LINECONFIG;
};

object load {
	phases C;
	load_class R;
	name 268-23-740;
	parent node268-23-740PROH16095;
	longitude 2.00776757402;
	constant_power_C 0.0+0.0j;
	constant_power_A 0.0+0.0j;
	latitude 819.288469116;
	nominal_voltage 7200.0;
	constant_power_B 0.0+0.0j;
};

object overhead_line {
	phases C;
	from nodePROH16095PROH16094;
	name PROH7163;
	to nodeSWIT_604-BPROH7163;
	longitude 17.6333988663;
	length 350.984;
	latitude 858.39177805;
	configuration PROH7038-LINECONFIG;
};

object load {
	phases C;
	load_class R;
	name 268-26-640;
	parent nodePROH16093PROH16092;
	longitude 37.787567802;
	constant_power_C 0.0+0.0j;
	constant_power_A 0.0+0.0j;
	latitude 836.878090723;
	nominal_voltage 7200.0;
	constant_power_B 0.0+0.0j;
};

object overhead_line {
	phases C;
	from nodePROH11034PROH17956;
	name PROH16063;
	longitude 132.88002885;
	to nodePROH16064PROH16063;
	length 2668.48;
	latitude 960.748190323;
	configuration PROH7038-LINECONFIG;
};

object overhead_line {
	phases C;
	from nodePROH16064PROH16063;
	name PROH16064;
	longitude 133.141741937;
	to node268-36-710PROH16064;
	length 711.225;
	latitude 995.443518156;
	configuration PROH7038-LINECONFIG;
};

object load {
	phases C;
	load_class R;
	name 268-36-710;
	parent node268-36-710PROH16064;
	longitude 132.636653336;
	constant_power_C 7996.83+2636.92j;
	constant_power_A 0.0+0.0j;
	latitude 991.123424443;
	nominal_voltage 7200.0;
	constant_power_B 0.0+0.0j;
};

object overhead_line {
	phases C;
	from nodePROH16064PROH16063;
	name PROH9356;
	longitude 128.971228786;
	to node268-35-650PROH9356;
	length 332.609;
	latitude 957.929611504;
	configuration PROH7038-LINECONFIG;
};

object load {
	phases C;
	load_class R;
	name 268-35-650;
	parent node268-35-650PROH9356;
	longitude 133.732615605;
	constant_power_C 14548.2+4797.2j;
	constant_power_A 0.0+0.0j;
	latitude 948.725158188;
	nominal_voltage 7200.0;
	constant_power_B 0.0+0.0j;
};

object capacitor {
	control MANUAL;
	phases CN;
	name NEWCAP-52B39155;
	parent node288-02-210PROH18130;
	phases_connected CN;
	longitude 159.34492638;
	switchC CLOSED;
	nominal_voltage 7200.0;
	capacitor_C 50000.0;
	latitude 699.719661465;
	control_level BANK;
	pt_phase C;
};

object load {
	phases C;
	load_class R;
	name 288-03-280;
	parent nodePROH18130PROH18129;
	longitude 156.331219674;
	constant_power_C 3376.92+1113.53j;
	constant_power_A 0.0+0.0j;
	latitude 703.072202528;
	nominal_voltage 7200.0;
	constant_power_B 0.0+0.0j;
};

object overhead_line {
	phases C;
	from nodePROH18129PROH18128;
	name PROH7188;
	longitude 190.277160942;
	to node288-03-560PROH7188;
	length 2249.78;
	latitude 642.849651294;
	configuration PROH7038-LINECONFIG;
};

object load {
	phases C;
	load_class R;
	name 288-03-560;
	parent node288-03-560PROH7188;
	longitude 192.569194271;
	constant_power_C 0.0+0.0j;
	constant_power_A 0.0+0.0j;
	latitude 642.856704686;
	nominal_voltage 7200.0;
	constant_power_B 0.0+0.0j;
};

object underground_line {
	phases C;
	from nodePROH18128PROH18127;
	name PRUG2116;
	longitude 217.658174132;
	to node288-10-180PRUG2116;
	length 935.368;
	latitude 663.637833945;
	configuration PRUG6578-LINECONFIG;
};

object load {
	phases C;
	load_class R;
	name 288-10-180;
	parent node288-10-180PRUG2116;
	longitude 219.168061498;
	constant_power_C 8096.52+2669.79j;
	constant_power_A 0.0+0.0j;
	latitude 663.965620764;
	nominal_voltage 7200.0;
	constant_power_B 0.0+0.0j;
};

object overhead_line {
	phases A;
	from nodePROH18124PROH7654;
	name PROH18071;
	longitude 234.897805026;
	to nodeRECL_615PROH18071;
	length 448.408;
	latitude 731.958596182;
	configuration PROH11764-LINECONFIG;
};

object fuse {
	phases A;
	from nodeRECL_615PROH18071;
	name RECL_615;
	current_limit 9999.0 A;
	longitude 247.956542326;
	to nodePROH18072RECL_615;
	latitude 749.316552243;
};

object overhead_line {
	phases A;
	from nodePROH18072RECL_615;
	name PROH18072;
	to nodePRUG651PROH18072;
	longitude 235.293010972;
	length 976.455;
	latitude 779.58772588;
	configuration PROH11764-LINECONFIG;
};

object underground_line {
	phases A;
	from nodePRUG651PROH18072;
	name PRUG651;
	longitude 224.392133455;
	to node288-11-220PRUG651;
	length 914.018;
	latitude 781.10067195;
	configuration PRUG6578-LINECONFIG;
};

object load {
	phases A;
	load_class R;
	name 288-11-220;
	parent node288-11-220PRUG651;
	longitude 219.584268823;
	constant_power_C 0.0+0.0j;
	constant_power_A 7495.27+2471.53j;
	latitude 779.509344409;
	nominal_voltage 7200.0;
	constant_power_B 0.0+0.0j;
};

object underground_line {
	phases A;
	from nodePRUG651PROH18072;
	name PRUG6577;
	longitude 235.622309308;
	to nodePRUG652PRUG6577;
	length 813.361;
	latitude 819.26151372;
	configuration PRUG6578-LINECONFIG;
};

object underground_line {
	phases A;
	from nodePRUG652PRUG6577;
	name PRUG652;
	longitude 241.846383464;
	to node288-11-340PRUG652;
	length 521.877;
	latitude 818.39795335;
	configuration PRUG6578-LINECONFIG;
};

object load {
	phases A;
	load_class R;
	name 288-11-340;
	parent node288-11-340PRUG652;
	longitude 242.203973055;
	constant_power_C 0.0+0.0j;
	constant_power_A 1271.02+419.113j;
	latitude 805.18193229;
	nominal_voltage 7200.0;
	constant_power_B 0.0+0.0j;
};

object line_configuration {
	spacing PRUG6578-LINESPACING;
	name PRUG6578-LINECONFIG;
};

object line_spacing {
	distance_AN 0.0;
	name PRUG6578-LINESPACING;
	distance_CN 0.0;
	distance_BC 0.0;
	distance_AB 0.0;
	distance_AC 0.0;
	distance_BN 0.0;
};

object underground_line {
	phases A;
	from nodePRUG652PRUG6577;
	name PRUG6578;
	longitude 235.981685484;
	to nodePROH11763PRUG6578;
	length 888.125;
	latitude 862.582153402;
	configuration PRUG6578-LINECONFIG;
};

object overhead_line {
	phases A;
	from nodePROH11763PRUG6578;
	name PROH11763;
	longitude 253.084588061;
	to node288-11-560PROH11763;
	length 2093.94;
	latitude 900.12987713;
	configuration PROH11764-LINECONFIG;
};

object load {
	phases A;
	load_class R;
	name 288-11-560;
	parent node288-11-560PROH11763;
	longitude 256.814767243;
	constant_power_C 0.0+0.0j;
	constant_power_A 71.6506+23.6265j;
	latitude 900.602671296;
	nominal_voltage 7200.0;
	constant_power_B 0.0+0.0j;
};

object line_configuration {
	name PROH11764-LINECONFIG;
	spacing PROH11764-LINESPACING;
	conductor_A PROH15855_conductor_C;
};

object line_spacing {
	distance_AN 0.000000;
	name PROH11764-LINESPACING;
	distance_CN 0.000000;
	distance_BC 0.000000;
	distance_AB 0.000000;
	distance_AC 0.000000;
	distance_BN 0.000000;
};

object overhead_line {
	phases A;
	from node288-11-560PROH11763;
	name PROH11764;
	longitude 203.870903189;
	to node288-02-780PROH11764;
	length 5344.04;
	latitude 956.21425318;
	configuration PROH11764-LINECONFIG;
};

object load {
	phases A;
	load_class R;
	name 288-02-780;
	parent node288-02-780PROH11764;
	longitude 205.323585532;
	constant_power_C 0.0+0.0j;
	constant_power_A 4003.09+1320.0j;
	latitude 939.150520361;
	nominal_voltage 7200.0;
	constant_power_B 0.0+0.0j;
};

object overhead_line {
	phases A;
	from node288-02-780PROH11764;
	name PROH11765;
	longitude 179.023378175;
	to nodePROH11766PROH11765;
	length 2826.01;
	latitude 991.689824008;
	configuration PROH11764-LINECONFIG;
};

object overhead_line {
	phases A;
	from nodePROH11766PROH11765;
	name PROH11766;
	longitude 162.147677068;
	to node288-01-220PROH11766;
	length 2609.83;
	latitude 1047.04933864;
	configuration PROH11764-LINECONFIG;
};

object load {
	phases A;
	load_class R;
	name 288-01-220;
	parent node288-01-220PROH11766;
	longitude 161.22204492;
	constant_power_C 0.0+0.0j;
	constant_power_A 2171.32+715.984j;
	latitude 1044.91807923;
	nominal_voltage 7200.0;
	constant_power_B 0.0+0.0j;
};

object overhead_line {
	phases A;
	from nodePROH11766PROH11765;
	name PROH2170;
	longitude 179.194378442;
	to nodePRUG654PROH2170;
	length 726.151;
	latitude 1027.12324604;
	configuration PROH11764-LINECONFIG;
};

object underground_line {
	phases A;
	from nodePRUG654PROH2170;
	name PRUG654;
	longitude 176.20996245;
	to node288-01-440PRUG654;
	length 760.932;
	latitude 1062.19791317;
	configuration PRUG6578-LINECONFIG;
};

object load {
	phases A;
	load_class R;
	name 288-01-440;
	parent node288-01-440PRUG654;
	longitude 176.109578702;
	constant_power_C 0.0+0.0j;
	constant_power_A 2161.98+712.903j;
	latitude 1064.31441288;
	nominal_voltage 7200.0;
	constant_power_B 0.0+0.0j;
};

object overhead_line {
	phases A;
	from nodePROH7587PROH7655;
	name PROH19086;
	longitude 278.368661064;
	to nodeFUSE_318PROH19086;
	length 529.975;
	latitude 699.182999353;
	configuration PROH11764-LINECONFIG;
};

object fuse {
	phases A;
	from nodeFUSE_318PROH19086;
	name FUSE_318;
	current_limit 9999.0 A;
	longitude 294.36561164;
	to nodePROH19087FUSE_318;
	latitude 676.484152528;
};

object overhead_line {
	phases A;
	from nodePROH19087FUSE_318;
	name PROH19087;
	longitude 278.354880379;
	to node288-15-151PROH19087;
	length 1659.66;
	latitude 618.182308278;
	configuration PROH11764-LINECONFIG;
};

object load {
	phases A;
	load_class R;
	name 288-15-151;
	parent node288-15-151PROH19087;
	longitude 278.329546237;
	constant_power_C 0.0+0.0j;
	constant_power_A 0.0+0.0j;
	latitude 620.687560158;
	nominal_voltage 7200.0;
	constant_power_B 0.0+0.0j;
};

object overhead_line {
	phases A;
	from node288-15-151PROH19087;
	name PROH19088;
	longitude 279.968897605;
	to node288-15-150PROH19088;
	length 143.19;
	latitude 620.476477557;
	configuration PROH11764-LINECONFIG;
};

object load {
	phases A;
	load_class R;
	name 288-15-150;
	parent node288-15-150PROH19088;
	longitude 281.447157282;
	constant_power_C 0.0+0.0j;
	constant_power_A 2990.63+986.148j;
	latitude 621.71444157;
	nominal_voltage 7200.0;
	constant_power_B 0.0+0.0j;
};

object overhead_line {
	phases B;
	from nodePROH7655PROH7763;
	name PROH11962;
	longitude 340.686814128;
	to nodeRECL_647PROH11962;
	length 203.781;
	latitude 711.0297541;
	configuration PROH4629-LINECONFIG;
};

object fuse {
	phases B;
	from nodeRECL_647PROH11962;
	name RECL_647;
	current_limit 9999.0 A;
	longitude 354.404275428;
	to nodePROH11963RECL_647;
	latitude 671.346991283;
};

object overhead_line {
	phases B;
	from nodePROH11963RECL_647;
	name PROH11963;
	longitude 338.881305358;
	to nodePROH4778PROH11963;
	length 3444.27;
	latitude 543.092251996;
	configuration PROH4629-LINECONFIG;
};

object overhead_line {
	phases B;
	from nodePROH4778PROH11963;
	name PROH4778;
	longitude 351.426757261;
	to node288-22-130PROH4778;
	length 1051.91;
	latitude 541.350918207;
	configuration PROH4629-LINECONFIG;
};

object load {
	phases B;
	load_class R;
	name 288-22-130;
	parent node288-22-130PROH4778;
	longitude 347.948333523;
	constant_power_C 0.0+0.0j;
	constant_power_A 0.0+0.0j;
	latitude 543.630824043;
	nominal_voltage 7200.0;
	constant_power_B 0.0+0.0j;
};

object overhead_line {
	phases B;
	from nodePROH4778PROH11963;
	name PROH11964;
	longitude 335.148898002;
	to nodePROH11965PROH11964;
	length 4529.99;
	latitude 322.530496604;
	configuration PROH4629-LINECONFIG;
};

object overhead_line {
	phases B;
	from nodePROH11965PROH11964;
	name PROH11965;
	longitude 334.930084777;
	to nodePROH11966PROH11965;
	length 2156.5;
	latitude 217.284930816;
	configuration PROH4629-LINECONFIG;
...